ChEBI_27997.sdf
__Jmol-16.04212412003D 1   1.00000     0.00000     0
Jmol version 16.2.5  2024-04-16 21:43 EXTRACT: ({0:53})
 54 53  0  0  0  0            999 V2000
    5.4300    0.1650    0.0000 C   0  0  0  0  0  0
    4.7155   -0.2475    0.0000 C   0  0  2  0  0  0
    5.4300    0.9900    0.0000 O   0  0  0  0  0  0
    4.0010    0.1650    0.0000 C   0  0  2  0  0  0
    3.2866   -0.2475    0.0000 C   0  0  2  0  0  0
    2.5721    0.1650    0.0000 C   0  0  2  0  0  0
    1.8576   -0.2475    0.0000 C   0  0  2  0  0  0
    1.1432    0.1650    0.0000 C   0  0  2  0  0  0
    0.4287   -0.2475    0.0000 C   0  0  2  0  0  0
   -0.2858    0.1650    0.0000 C   0  0  0  0  0  0
   -1.0003   -0.2475    0.0000 C   0  0  0  0  0  0
    6.1445   -0.2475    0.0000 O   0  0  0  0  0  0
   -1.7147    0.1650    0.0000 C   0  0  2  0  0  0
   -2.4292   -0.2475    0.0000 C   0  0  2  0  0  0
   -3.1437    0.1650    0.0000 C   0  0  2  0  0  0
   -3.8581   -0.2475    0.0000 C   0  0  2  0  0  0
   -4.5726    0.1650    0.0000 C   0  0  2  0  0  0
   -5.2871   -0.2475    0.0000 C   0  0  2  0  0  0
   -6.0016    0.1650    0.0000 C   0  0  2  0  0  0
   -6.7160   -0.2475    0.0000 C   0  0  0  0  0  0
    4.7155   -0.9517    0.8450 H   0  0  0  0  0  0
    4.7155   -0.9517   -0.8450 H   0  0  0  0  0  0
    4.0010    0.8692   -0.8450 H   0  0  0  0  0  0
    4.0010    0.8692    0.8450 H   0  0  0  0  0  0
    3.2866   -0.9517    0.8450 H   0  0  0  0  0  0
    3.2866   -0.9517   -0.8450 H   0  0  0  0  0  0
    2.5721    0.8692   -0.8450 H   0  0  0  0  0  0
    2.5721    0.8692    0.8450 H   0  0  0  0  0  0
    1.8576   -0.9517    0.8450 H   0  0  0  0  0  0
    1.8576   -0.9517   -0.8450 H   0  0  0  0  0  0
    1.1432    0.8692   -0.8450 H   0  0  0  0  0  0
    1.1432    0.8692    0.8450 H   0  0  0  0  0  0
    0.4287   -0.9517    0.8450 H   0  0  0  0  0  0
    0.4287   -0.9517   -0.8450 H   0  0  0  0  0  0
   -0.2858    1.2650    0.0000 H   0  0  0  0  0  0
   -1.0003   -1.3475    0.0000 H   0  0  0  0  0  0
    5.9618   -1.2307    0.0000 H   0  0  0  0  0  0
   -1.7147    0.8692   -0.8450 H   0  0  0  0  0  0
   -1.7147    0.8692    0.8450 H   0  0  0  0  0  0
   -2.4292   -0.9517    0.8450 H   0  0  0  0  0  0
   -2.4292   -0.9517   -0.8450 H   0  0  0  0  0  0
   -3.1437    0.8692   -0.8450 H   0  0  0  0  0  0
   -3.1437    0.8692    0.8450 H   0  0  0  0  0  0
   -3.8581   -0.9517    0.8450 H   0  0  0  0  0  0
   -3.8581   -0.9517   -0.8450 H   0  0  0  0  0  0
   -4.5726    0.8692   -0.8450 H   0  0  0  0  0  0
   -4.5726    0.8692    0.8450 H   0  0  0  0  0  0
   -5.2871   -0.9517    0.8450 H   0  0  0  0  0  0
   -5.2871   -0.9517   -0.8450 H   0  0  0  0  0  0
   -6.0016    0.8692   -0.8450 H   0  0  0  0  0  0
   -6.0016    0.8692    0.8450 H   0  0  0  0  0  0
   -6.7743   -0.8799    0.8981 H   0  0  0  0  0  0
   -6.7743   -0.8799   -0.8981 H   0  0  0  0  0  0
   -7.5522    0.4672    0.0000 H   0  0  0  0  0  0
  1  2  1
  1  3  2
  2  4  1
  4  5  1
  5  6  1
  6  7  1
  7  8  1
  8  9  1
  9 10  1
 10 11  2
  1 12  1
 13 11  1
 14 13  1
 15 14  1
 16 15  1
 17 16  1
 18 17  1
 19 18  1
 20 19  1
  2 21  1
  2 22  1
  4 23  1
  4 24  1
  5 25  1
  5 26  1
  6 27  1
  6 28  1
  7 29  1
  7 30  1
  8 31  1
  8 32  1
  9 33  1
  9 34  1
 10 35  1
 11 36  1
 12 37  1
 13 38  1
 13 39  1
 14 40  1
 14 41  1
 15 42  1
 15 43  1
 16 44  1
 16 45  1
 17 46  1
 17 47  1
 18 48  1
 18 49  1
 19 50  1
 19 51  1
 20 52  1
 20 53  1
 20 54  1
M  END
> <ID>
CHEBI:27997


> <NAME>
elaidic acid


> <DEFINITION>
A 9-octadecenoic acid and the trans-isomer of oleic acid.


> <STAR>
3


> <SECONDARY_ID>
CHEBI:10546; CHEBI:42209; CHEBI:23903


> <SYNONYM>
trans-Oleic acid; trans-Elaidic acid; trans-Delta(9)-octadecenoic acid; trans-D9+
-Octadecenoic acid; trans-9-Octadecenoic acid; Elaidinsaeure; Elaidinsaure; Elai+
dic acid; D9-trans-Octadecenoic acid; Acide elaidique; 9-trans-Octadecenoic acid+
; 9-Octadecenoic acid, (E)-; 9-OCTADECENOIC ACID; (E)-Oleic acid; (9E)-Octadecen+
oic acid


> <IUPAC_NAME>
(9E)-octadec-9-enoic acid


> <FORMULA>
C18H34O2


> <MASS>
282.46140


> <MONOISOTOPIC_MASS>
282.25588


> <CHARGE>
0


> <SMILES>
CCCCCCCC\C=C\CCCCCCCC(O)=O


> <INCHI>
InChI=1S/C18H34O2/c1-2-3-4-5-6-7-8-9-10-11-12-13-14-15-16-17-18(19)20/h9-10H,2-8+
,11-17H2,1H3,(H,19,20)/b10-9+


> <INCHIKEY>
ZQPPMHVWECSIRJ-MDZDMXLPSA-N


> <BEILSTEIN_REGISTRY_NUMBER>
1726543


> <CAS_REGISTRY_NUMBER>
112-79-8


> <GMELIN_REGISTRY_NUMBER>
171874


> <REAXYS_REGISTRY_NUMBER>
1726543


> <CHEMIDPLUS>
112-79-8


> <KEGG_COMPOUND_ACCESSION>
C01712


> <LIPID_MAPS_INSTANCE_ACCESSION>
LMFA01030073


> <NIST_CHEMISTRY_WEBBOOK>
112-79-8


> <PDBECHEM_ACCESSION>
ELA


> <WIKIPEDIA_ACCESSION>
Elaidic_acid


> <PUBMED_CITATION>
10342226; 23601386; 24800387; 8018112; 881948


> <JMOL_ATOM_NAMES>
54
1 C1
2 C2
3 O3
4 C4
5 C5
6 C6
7 C7
8 C8
9 C9
10 C10
11 C11
12 O12
13 C13
14 C14
15 C15
16 C16
17 C17
18 C18
19 C19
20 C20
21 H21
22 H22
23 H23
24 H24
25 H25
26 H26
27 H27
28 H28
29 H29
30 H30
31 H31
32 H32
33 H33
34 H34
35 H35
36 H36
37 H37
38 H38
39 H39
40 H40
41 H41
42 H42
43 H43
44 H44
45 H45
46 H46
47 H47
48 H48
49 H49
50 H50
51 H51
52 H52
53 H53
54 H54


$$$$
