
Marvin  08070909352D          

 59 63  0  0  0  0            999 V2000
   -1.0827    1.8250   -1.3061 C   0  0  0  0  0  0  0  0  0  0  0  0
   -1.3673   -2.4016   -1.9372 C   0  0  0  0  0  0  0  0  0  0  0  0
   -2.2467   -1.7881   -1.0142 C   0  0  0  0  0  0  0  0  0  0  0  0
   -0.1325    2.5720   -2.0044 C   0  0  0  0  0  0  0  0  0  0  0  0
   -0.3300   -0.2026   -2.4586 C   0  0  0  0  0  0  0  0  0  0  0  0
   -1.2062    0.4213   -1.5122 C   0  0  0  0  0  0  0  0  0  0  0  0
   -1.1079    4.0745   -0.7186 C   0  0  1  0  0  0  0  0  0  0  0  0
   -1.2416   -3.7029   -2.1837 N   0  0  0  0  0  0  0  0  0  0  0  0
   -0.2240    3.7879   -1.6789 O   0  0  0  0  0  0  0  0  0  0  0  0
   -0.4540   -1.6039   -2.6728 C   0  0  0  0  0  0  0  0  0  0  0  0
   -2.1465   -0.3861   -0.8210 C   0  0  0  0  0  0  0  0  0  0  0  0
    0.6468    0.5886   -3.1406 C   0  0  0  0  0  0  0  0  0  0  0  0
   -1.6999    2.7737   -0.5146 C   0  0  0  0  0  0  0  0  0  0  0  0
    0.7642    1.9836   -2.9149 C   0  0  0  0  0  0  0  0  0  0  0  0
    3.5561    2.7066    1.6477 C   0  0  1  0  0  0  0  0  0  0  0  0
   -1.7026   -4.8836   -1.9482 C   0  0  0  0  0  0  0  0  0  0  0  0
    2.3795    1.7724    1.1830 C   0  0  1  0  0  0  0  0  0  0  0  0
    2.2119   -0.9868    0.5293 C   0  0  1  0  0  0  0  0  0  0  0  0
    2.9445    0.4120    0.6331 C   0  0  1  0  0  0  0  0  0  0  0  0
   -3.1390   -2.5591   -0.2843 C   0  0  0  0  0  0  0  0  0  0  0  0
    3.4871    4.2267    1.2601 C   0  0  1  0  0  0  0  0  0  0  0  0
   -5.1428   -2.5919    0.9322 N   0  0  0  0  0  0  0  0  0  0  0  0
    2.9743   -2.0824   -0.3205 C   0  0  2  0  0  0  0  0  0  0  0  0
   -4.2487   -2.1385    0.2075 N   0  0  0  0  0  0  0  0  0  0  0  0
   -0.8907   -5.9091   -2.3223 C   0  0  0  0  0  0  0  0  0  0  0  0
   -0.5886    4.4752    0.4541 O   0  0  0  0  0  0  0  0  0  0  0  0
    3.9688    2.5032    2.9202 O   0  0  0  0  0  0  0  0  0  0  0  0
   -6.4041   -2.3689    3.3548 N   0  0  0  0  0  0  0  0  0  0  0  0
    0.5791    4.7839    0.6700 C   0  0  0  0  0  0  0  0  0  0  0  0
    4.9726    1.9823    3.4447 C   0  0  0  0  0  0  0  0  0  0  0  0
    1.1424    4.8633    1.8736 C   0  0  0  0  0  0  0  0  0  0  0  0
    2.5393    5.2255    2.0224 C   0  0  2  0  0  0  0  0  0  0  0  0
    1.4147   -5.2514   -1.5789 C   0  0  0  0  0  0  0  0  0  0  0  0
   -2.5931    2.6167    0.3077 O   0  0  0  0  0  0  0  0  0  0  0  0
    0.4383   -5.9891   -2.1497 C   0  0  0  0  0  0  0  0  0  0  0  0
   -2.8096   -5.0669   -1.4565 O   0  0  0  0  0  0  0  0  0  0  0  0
   -6.2958   -1.7757    0.9327 C   0  0  0  0  0  0  0  0  0  0  0  0
   -5.0109   -3.7243    1.7797 C   0  0  0  0  0  0  0  0  0  0  0  0
    2.7152   -3.6314   -0.3572 C   0  0  2  0  0  0  0  0  0  0  0  0
    1.4479   -4.1195   -0.8605 C   0  0  0  0  0  0  0  0  0  0  0  0
    5.0170    2.0572    4.6620 O   0  0  0  0  0  0  0  0  0  0  0  0
    0.2729   -2.1766   -3.5373 O   0  0  0  0  0  0  0  0  0  0  0  0
   -2.9045    0.1337    0.0311 O   0  0  0  0  0  0  0  0  0  0  0  0
    1.4442    0.0530   -3.9637 O   0  0  0  0  0  0  0  0  0  0  0  0
   -6.5388   -1.2439    2.3787 C   0  0  0  0  0  0  0  0  0  0  0  0
   -5.1992   -3.2526    3.2570 C   0  0  0  0  0  0  0  0  0  0  0  0
    3.3566    0.7887   -0.6809 O   0  0  0  0  0  0  0  0  0  0  0  0
    4.3932   -1.9469   -0.1963 O   0  0  0  0  0  0  0  0  0  0  0  0
   -2.0944    5.1431   -1.2432 C   0  0  0  0  0  0  0  0  0  0  0  0
    1.7767    2.8454   -3.5711 C   0  0  0  0  0  0  0  0  0  0  0  0
    1.2246    1.6930    2.2103 C   0  0  0  0  0  0  0  0  0  0  0  0
    1.8458   -1.5014    1.9387 C   0  0  0  0  0  0  0  0  0  0  0  0
    2.6830    6.5949    1.5719 O   0  0  0  0  0  0  0  0  0  0  0  0
    4.9365    4.7570    1.1916 C   0  0  0  0  0  0  0  0  0  0  0  0
   -6.4294   -1.7832    4.6964 C   0  0  0  0  0  0  0  0  0  0  0  0
   -1.3999   -7.0794   -2.9960 C   0  0  0  0  0  0  0  0  0  0  0  0
    6.0916    1.3014    2.8336 C   0  0  0  0  0  0  0  0  0  0  0  0
    3.1137   -4.4257    0.9131 C   0  0  0  0  0  0  0  0  0  0  0  0
    2.2931    7.6115    2.5071 C   0  0  0  0  0  0  0  0  0  0  0  0
  1  4  2  0  0  0  0
  1  6  1  0  0  0  0
  1 13  1  0  0  0  0
  2  3  1  0  0  0  0
  2  8  1  0  0  0  0
  2 10  2  0  0  0  0
  3 11  2  0  0  0  0
  3 20  1  0  0  0  0
  4  9  1  0  0  0  0
  4 14  1  0  0  0  0
  5  6  2  0  0  0  0
  5 10  1  0  0  0  0
  5 12  1  0  0  0  0
  6 11  1  0  0  0  0
  7 13  1  0  0  0  0
  7 26  1  0  0  0  0
  7 49  1  0  0  0  0
  7  9  1  0  0  0  0
  8 16  1  0  0  0  0
 10 42  1  0  0  0  0
 11 43  1  0  0  0  0
 12 44  1  0  0  0  0
 12 14  2  0  0  0  0
 13 34  2  0  0  0  0
 14 50  1  0  0  0  0
 15 21  1  0  0  0  0
 15 17  1  0  0  0  0
 15 27  1  0  0  0  0
 16 25  1  0  0  0  0
 16 36  2  0  0  0  0
 17 19  1  0  0  0  0
 17 51  1  0  0  0  0
 18 19  1  0  0  0  0
 18 23  1  0  0  0  0
 18 52  1  0  0  0  0
 19 47  1  0  0  0  0
 20 24  2  0  0  0  0
 21 32  1  0  0  0  0
 21 54  1  0  0  0  0
 22 24  1  0  0  0  0
 22 37  1  0  0  0  0
 22 38  1  0  0  0  0
 23 48  1  0  0  0  0
 23 39  1  0  0  0  0
 25 35  2  0  0  0  0
 25 56  1  0  0  0  0
 26 29  1  0  0  0  0
 27 30  1  0  0  0  0
 28 46  1  0  0  0  0
 28 55  1  0  0  0  0
 28 45  1  0  0  0  0
 29 31  2  0  0  0  0
 30 41  2  0  0  0  0
 30 57  1  0  0  0  0
 31 32  1  0  0  0  0
 32 53  1  0  0  0  0
 33 35  1  0  0  0  0
 33 40  2  0  0  0  0
 37 45  1  0  0  0  0
 38 46  1  0  0  0  0
 39 40  1  0  0  0  0
 39 58  1  0  0  0  0
 53 59  1  0  0  0  0
M  END
> <ID>
CHEBI:28077

> <NAME>
rifampicin

> <DEFINITION>
A member of the class of rifamycins that is a a semisynthetic antibiotic derived from Amycolatopsis rifamycinica (previously known as Amycolatopsis mediterranei and Streptomyces mediterranei).

> <STAR>
3

> <SECONDARY_ID>
CHEBI:45308; CHEBI:8858; CHEBI:26577

> <SYNONYM>
Rifampin; Rifampicin; rifamcin; RFP; 3-(((4-Methyl-1-piperazinyl)imino)methyl)rifamycin SV

> <IUPAC_NAME>
(7S,9E,11S,12R,13S,14R,15R,16R,17S,18S,19E,21Z)-2,15,17,27,29-pentahydroxy-11-methoxy-3,7,12,14,16,18,22-heptamethyl-26-{(E)-[(4-methylpiperazin-1-yl)imino]methyl}-6,23-dioxo-8,30-dioxa-24-azatetracyclo[23.3.1.1(4,7).0(5,28)]triaconta-1(28),1(29),2,4,9,19,21,25,27-nonaen-13-yl acetate

> <INN>
rifampicinum; rifampicina; rifampicin

> <FORMULA>
C43H58N4O12

> <MASS>
822.94020

> <MONOISOTOPIC_MASS>
822.40512

> <CHARGE>
0

> <SMILES>
CO[C@H]1\C=C\O[C@@]2(C)Oc3c(C)c(O)c4c(O)c(NC(=O)\C(C)=C/C=C/[C@H](C)[C@H](O)[C@@H](C)[C@@H](O)[C@@H](C)[C@H](OC(C)=O)[C@@H]1C)c(\C=N\N1CCN(C)CC1)c(O)c4c3C2=O

> <INCHI>
InChI=1S/C43H58N4O12/c1-21-12-11-13-22(2)42(55)45-33-28(20-44-47-17-15-46(9)16-18-47)37(52)30-31(38(33)53)36(51)26(6)40-32(30)41(54)43(8,59-40)57-19-14-29(56-10)23(3)39(58-27(7)48)25(5)35(50)24(4)34(21)49/h11-14,19-21,23-25,29,34-35,39,49-53H,15-18H2,1-10H3,(H,45,55)/b12-11+,19-14+,22-13-,44-20+/t21-,23+,24+,25+,29-,34-,35+,39+,43-/m0/s1

> <INCHIKEY>
JQXXHWHPUNPDRT-WLSIYKJHSA-N

> <BEILSTEIN_REGISTRY_NUMBER>
5723476

> <CAS_REGISTRY_NUMBER>
13292-46-1

> <REAXYS_REGISTRY_NUMBER>
5723476

> <CHEMIDPLUS>
13292-46-1

> <DRUGBANK_ACCESSION>
DB01045

> <KEGG_COMPOUND_ACCESSION>
C06688

> <KEGG_DRUG_ACCESSION>
D00211

> <PDBECHEM_ACCESSION>
RFP

> <WIKIPEDIA_ACCESSION>
Rifampicin

> <PUBMED_CITATION>
11600355; 14665784; 14670633; 15331348; 15383168; 15705662; 16159084; 16515773; 17828712; 18332862; 19386087; 19458074; 19723399; 24718527; 25720500; 26725427; 26819743; 27082586; 27143080; 27182275; 27242224; 27470132; 27569735; 27617596; 27640793; 27755552; 27795624; 27883163; 27965540; 27993874; 28081169; 28118809; 28181840; 28184157; 28207542; 28262820

$$$$
