
Marvin  08191311142D          

 57 62  0  0  1  0            999 V2000
    2.3820   -1.7880    1.2738 C   0  0  0  0  0  0  0  0  0  0  0  0
    1.3508   -2.7575    1.2586 C   0  0  0  0  0  0  0  0  0  0  0  0
    3.7364   -1.8775    1.2204 N   0  0  0  0  0  0  0  0  0  0  0  0
    4.2010   -0.5876    1.2977 C   0  0  0  0  0  0  0  0  0  0  0  0
    3.1939    0.2846    1.3921 N   0  0  0  0  0  0  0  0  0  0  0  0
    2.0571   -0.4268    1.4067 C   0  0  0  0  0  0  0  0  0  0  0  0
    0.3878    1.4108    1.6866 C   0  0  0  0  0  0  0  0  0  0  0  0
   -0.9080    1.7905    2.0381 C   0  0  0  0  0  0  0  0  0  0  0  0
   -0.3042   -0.9444    1.7170 C   0  0  0  0  0  0  0  0  0  0  0  0
    0.7321    0.0371    1.5828 C   0  0  0  0  0  0  0  0  0  0  0  0
    0.1471    3.7195    1.8288 C   0  0  1  0  0  0  0  0  0  0  0  0
    1.6637   -4.0218    0.9639 N   0  0  0  0  0  0  0  0  0  0  0  0
   -0.9603    3.0448    2.1558 O   0  0  0  0  0  0  0  0  0  0  0  0
    0.0288   -2.3177    1.5280 C   0  0  0  0  0  0  0  0  0  0  0  0
   -1.6266   -0.5148    2.0481 C   0  0  0  0  0  0  0  0  0  0  0  0
    1.0401    2.6150    1.5350 C   0  0  0  0  0  0  0  0  0  0  0  0
   -1.9399    0.8552    2.2380 C   0  0  0  0  0  0  0  0  0  0  0  0
   -2.5064    2.8768   -2.4721 C   0  0  1  0  0  0  0  0  0  0  0  0
    1.1575   -5.1746    1.2810 C   0  0  0  0  0  0  0  0  0  0  0  0
   -3.1977    1.4708   -2.2213 C   0  0  1  0  0  0  0  0  0  0  0  0
   -2.8316   -1.2735   -2.6382 C   0  0  1  0  0  0  0  0  0  0  0  0
   -2.3175    0.1764   -2.3789 C   0  0  1  0  0  0  0  0  0  0  0  0
    4.5499   -2.9925    1.1499 C   0  0  0  0  0  0  0  0  0  0  0  0
   -3.1852    4.2063   -1.9496 C   0  0  1  0  0  0  0  0  0  0  0  0
    5.5840   -0.2740    1.3101 C   0  0  0  0  0  0  0  0  0  0  0  0
   -1.9731   -2.2566   -1.7763 C   0  0  2  0  0  0  0  0  0  0  0  0
    1.2186   -6.2233    0.4304 C   0  0  0  0  0  0  0  0  0  0  0  0
    0.0259    4.5384    0.7651 O   0  0  0  0  0  0  0  0  0  0  0  0
   -1.2050    2.8084   -2.1303 O   0  0  0  0  0  0  0  0  0  0  0  0
    5.9516   -2.7621    1.1665 C   0  0  0  0  0  0  0  0  0  0  0  0
    6.4235   -1.4196    1.2483 C   0  0  0  0  0  0  0  0  0  0  0  0
   -1.0080    4.7679    0.1330 C   0  0  0  0  0  0  0  0  0  0  0  0
   -0.1257    2.9336   -2.7468 C   0  0  0  0  0  0  0  0  0  0  0  0
   -1.1045    5.3859   -1.0421 C   0  0  0  0  0  0  0  0  0  0  0  0
   -2.3797    5.5425   -1.7254 C   0  0  2  0  0  0  0  0  0  0  0  0
   -0.2986   -5.6260   -1.4741 C   0  0  0  0  0  0  0  0  0  0  0  0
    2.1902    2.7782    1.1517 O   0  0  0  0  0  0  0  0  0  0  0  0
    0.5541   -6.3534   -0.7262 C   0  0  0  0  0  0  0  0  0  0  0  0
    0.6259   -5.3296    2.3754 O   0  0  0  0  0  0  0  0  0  0  0  0
   -1.6390   -3.6896   -2.2972 C   0  0  2  0  0  0  0  0  0  0  0  0
   -0.7008   -4.3512   -1.4005 C   0  0  0  0  0  0  0  0  0  0  0  0
    0.8750    2.7627   -2.0705 O   0  0  0  0  0  0  0  0  0  0  0  0
   -0.8680   -3.1965    1.5826 O   0  0  0  0  0  0  0  0  0  0  0  0
   -2.5515   -1.3621    2.2073 O   0  0  0  0  0  0  0  0  0  0  0  0
   -1.4028    0.3016   -3.4629 O   0  0  0  0  0  0  0  0  0  0  0  0
   -2.5536   -2.3633   -0.4786 O   0  0  0  0  0  0  0  0  0  0  0  0
    0.5874    4.5608    3.0476 C   0  0  0  0  0  0  0  0  0  0  0  0
   -3.2781    1.3492    2.6427 C   0  0  0  0  0  0  0  0  0  0  0  0
   -3.8962    1.3462   -0.8496 C   0  0  0  0  0  0  0  0  0  0  0  0
   -4.3498   -1.5660   -2.7053 C   0  0  0  0  0  0  0  0  0  0  0  0
   -3.1649    6.5044   -0.9912 O   0  0  0  0  0  0  0  0  0  0  0  0
   -4.3842    4.5117   -2.8688 C   0  0  0  0  0  0  0  0  0  0  0  0
    2.0315   -7.3713    0.7429 C   0  0  0  0  0  0  0  0  0  0  0  0
    7.8680   -1.1956    1.2792 C   0  0  0  0  0  0  0  0  0  0  0  0
    0.1145    3.2683   -4.1319 C   0  0  0  0  0  0  0  0  0  0  0  0
   -1.0823   -3.6878   -3.7418 C   0  0  0  0  0  0  0  0  0  0  0  0
   -2.9348    7.8570   -1.4057 C   0  0  0  0  0  0  0  0  0  0  0  0
  1  2  1  0  0  0  0
  1  3  1  0  0  0  0
  1  6  2  0  0  0  0
  2 12  1  0  0  0  0
  2 14  2  0  0  0  0
  3  4  1  0  0  0  0
  3 23  1  0  0  0  0
  4 25  1  0  0  0  0
  4  5  2  0  0  0  0
  5  6  1  0  0  0  0
  6 10  1  0  0  0  0
  7 10  1  0  0  0  0
  7  8  2  0  0  0  0
  7 16  1  0  0  0  0
  8 13  1  0  0  0  0
  8 17  1  0  0  0  0
  9 10  2  0  0  0  0
  9 15  1  0  0  0  0
  9 14  1  0  0  0  0
 11 16  1  0  0  0  0
 11 28  1  0  0  0  0
 11 47  1  0  0  0  0
 11 13  1  0  0  0  0
 12 19  1  0  0  0  0
 14 43  1  0  0  0  0
 15 17  2  0  0  0  0
 15 44  1  0  0  0  0
 16 37  2  0  0  0  0
 17 48  1  0  0  0  0
 18 24  1  0  0  0  0
 18 20  1  0  0  0  0
 18 29  1  0  0  0  0
 19 27  1  0  0  0  0
 19 39  2  0  0  0  0
 20 49  1  0  0  0  0
 20 22  1  0  0  0  0
 21 26  1  0  0  0  0
 21 22  1  0  0  0  0
 21 50  1  0  0  0  0
 22 45  1  0  0  0  0
 23 30  2  0  0  0  0
 24 35  1  0  0  0  0
 24 52  1  0  0  0  0
 25 31  2  0  0  0  0
 26 40  1  0  0  0  0
 26 46  1  0  0  0  0
 27 38  2  0  0  0  0
 27 53  1  0  0  0  0
 28 32  1  0  0  0  0
 29 33  1  0  0  0  0
 30 31  1  0  0  0  0
 31 54  1  0  0  0  0
 32 34  2  0  0  0  0
 33 42  2  0  0  0  0
 33 55  1  0  0  0  0
 34 35  1  0  0  0  0
 35 51  1  0  0  0  0
 36 38  1  0  0  0  0
 36 41  2  0  0  0  0
 40 41  1  0  0  0  0
 40 56  1  0  0  0  0
 51 57  1  0  0  0  0
 M  END
> <ID>
CHEBI:75246

> <NAME>
rifaximin

> <DEFINITION>
A semisynthetic member of the class of rifamycins and non-systemic gastrointestinal site-specific broad spectrum antibiotic. Used in the treatment of traveller's diarrhoea, hepatic encephalopathy and irritable bowel syndrome.

> <STAR>
3

> <SYNONYM>
Rifaxidin; Rifamycin L 105SV; Rifamycin L 105

> <IUPAC_NAME>
(2S,16Z,18E,20S,21S,22R,23R,24R,25S,26R,27S,28E)-5,6,21,23-tetrahydroxy-27-methoxy-2,4,11,16,20,22,24,26-octamethyl-1,15-dioxo-1,2-dihydro-2,7-(epoxypentadeca[1,11,13]trienoimino)furo[2'',3'':7',8']naphtho[1',2':4,5]imidazo[1,2-a]pyridin-25-yl acetate

> <INN>
rifaximinun; rifaximine; rifaximina; rifaximin

> <BRAND_NAME>
Xifaxsan

> <FORMULA>
C43H51N3O11

> <MASS>
785.87850

> <MONOISOTOPIC_MASS>
785.35236

> <CHARGE>
0

> <SMILES>
CO[C@H]1\C=C\O[C@@]2(C)Oc3c(C)c(O)c4c(O)c(NC(=O)\C(C)=C/C=C/[C@H](C)[C@H](O)[C@@H](C)[C@@H](O)[C@@H](C)[C@H](OC(C)=O)[C@@H]1C)c1c(nc5cc(C)ccn15)c4c3C2=O

> <INCHI>
InChI=1S/C43H51N3O11/c1-19-14-16-46-28(18-19)44-32-29-30-37(50)25(7)40-31(29)41(52)43(9,57-40)55-17-15-27(54-10)22(4)39(56-26(8)47)24(6)36(49)23(5)35(48)20(2)12-11-13-21(3)42(53)45-33(34(32)46)38(30)51/h11-18,20,22-24,27,35-36,39,48-51H,1-10H3,(H,45,53)/b12-11+,17-15+,21-13-/t20-,22+,23+,24+,27-,35-,36+,39+,43-/m0/s1

> <INCHIKEY>
NZCRJKRKKOLAOJ-XRCRFVBUSA-N

> <CAS_REGISTRY_NUMBER>
80621-81-4

> <REAXYS_REGISTRY_NUMBER>
7790802

> <CHEMIDPLUS>
80621-81-4

> <DRUGBANK_ACCESSION>
DB01220

> <KEGG_DRUG_ACCESSION>
D02554

> <WIKIPEDIA_ACCESSION>
Rifaximin

> <PUBMED_CITATION>
23092785; 23095030; 23183443; 23216382; 23273888; 23274384; 23275147; 23303506; 23314671; 23340064; 23389621; 23445237; 23526308; 23556126; 23565181; 23589147; 23640348; 23653636; 23740443; 23798671; 23843564; 23877348; 23922656; 25214516; 25339518; 25565769; 25586470; 25641072; 25835116; 25867912; 25932262; 26028929; 26043290

$$$$
