C:/Users/charl/WebstormProjects/aims/src/molecules/sdf/rifampicin.sdf
__Jmol-16.12022418573D 1   1.00000     0.00000     0
Jmol version 16.2.5  2024-04-16 21:43 EXTRACT: ({0:116})
117121  0  0  0  0            999 V2000
   -1.1100    1.8378   -1.3226 C   0  0  0  0  0  0
   -1.3339   -2.4064   -1.9827 C   0  0  0  0  0  0
   -2.2059   -1.8212   -1.0363 C   0  0  0  0  0  0
   -0.1625    2.5730   -1.9949 C   0  0  0  0  0  0
   -0.3387   -0.1760   -2.4393 C   0  0  0  0  0  0
   -1.2292    0.4246   -1.4932 C   0  0  0  0  0  0
   -1.1900    4.1733   -0.7487 C   0  0  1  0  0  0
   -1.1374   -3.7845   -2.2916 N   0  0  0  0  0  0
   -0.1370    3.9351   -1.7234 O   0  0  0  0  0  0
   -0.4360   -1.5644   -2.6627 C   0  0  0  0  0  0
   -2.1288   -0.4177   -0.8078 C   0  0  0  0  0  0
    0.6261    0.6305   -3.1148 C   0  0  0  0  0  0
   -1.8330    2.8284   -0.5226 C   0  0  0  0  0  0
    0.7377    2.0067   -2.8971 C   0  0  0  0  0  0
    3.5729    2.7059    1.5916 C   0  0  1  0  0  0
   -1.7525   -4.9656   -1.9599 C   0  0  0  0  0  0
    2.3794    1.7575    1.1465 C   0  0  1  0  0  0
    2.1819   -0.9769    0.5299 C   0  0  1  0  0  0
    2.9980    0.3858    0.6518 C   0  0  1  0  0  0
   -3.1921   -2.6035   -0.2428 C   0  0  0  0  0  0
    3.5368    4.2242    1.2017 C   0  0  1  0  0  0
   -5.2726   -2.7174    0.7293 N   0  0  0  0  0  0
    2.9774   -2.0379   -0.3483 C   0  0  2  0  0  0
   -4.2509   -1.9859    0.1892 N   0  0  0  0  0  0
   -0.8702   -6.1215   -2.3231 C   0  0  0  0  0  0
   -0.7766    4.6719    0.5538 O   0  0  0  0  0  0
    3.8202    2.5821    3.0051 O   0  0  0  0  0  0
   -6.4303   -2.3795    3.4479 N   0  0  0  0  0  0
    0.5673    4.9550    0.6839 C   0  0  0  0  0  0
    4.9264    2.0111    3.6152 C   0  0  0  0  0  0
    1.1780    4.9074    1.8739 C   0  0  0  0  0  0
    2.6354    5.1818    2.0450 C   0  0  2  0  0  0
    1.4973   -5.2709   -1.6310 C   0  0  0  0  0  0
   -2.8028    2.6440    0.2089 O   0  0  0  0  0  0
    0.4759   -6.1821   -2.1429 C   0  0  0  0  0  0
   -2.8864   -5.1429   -1.5411 O   0  0  0  0  0  0
   -6.4973   -1.9330    0.9967 C   0  0  2  0  0  0
   -5.0714   -3.7331    1.8057 C   0  0  2  0  0  0
    2.7636   -3.5980   -0.2946 C   0  0  2  0  0  0
    1.4656   -4.2239   -0.7810 C   0  0  0  0  0  0
    5.0202    2.0409    4.8272 O   0  0  0  0  0  0
    0.4370   -2.1381   -3.6013 O   0  0  0  0  0  0
   -2.9118    0.1533    0.1805 O   0  0  0  0  0  0
    1.5325    0.0901   -4.0239 O   0  0  0  0  0  0
   -6.5282   -1.3266    2.4084 C   0  0  2  0  0  0
   -5.1923   -3.1663    3.2326 C   0  0  2  0  0  0
    3.6403    0.6213   -0.6176 O   0  0  0  0  0  0
    4.3790   -1.8683   -0.1114 O   0  0  0  0  0  0
   -2.1842    5.1693   -1.3368 C   0  0  0  0  0  0
    1.7864    2.8221   -3.6059 C   0  0  0  0  0  0
    1.3131    1.5802    2.2269 C   0  0  0  0  0  0
    1.8418   -1.5611    1.9066 C   0  0  0  0  0  0
    2.8679    6.5405    1.6098 O   0  0  0  0  0  0
    4.9779    4.7667    1.2169 C   0  0  0  0  0  0
   -6.4601   -1.7900    4.7942 C   0  0  0  0  0  0
   -1.5728   -7.2679   -2.9927 C   0  0  0  0  0  0
    6.0156    1.3484    2.7871 C   0  0  0  0  0  0
    3.1728   -4.2879    1.0148 C   0  0  0  0  0  0
    2.3668    7.5367    2.5218 C   0  0  0  0  0  0
   -0.2340   -3.9446   -2.7104 H   0  0  0  0  0  0
    4.4347    2.3493    1.0462 H   0  0  0  0  0  0
    1.8949    2.2210    0.2774 H   0  0  0  0  0  0
    1.2345   -0.7775    0.0271 H   0  0  0  0  0  0
    3.8124    0.1588    1.3486 H   0  0  0  0  0  0
   -3.0216   -3.6672   -0.0503 H   0  0  0  0  0  0
    3.2312    4.2813    0.1486 H   0  0  0  0  0  0
    2.8188   -1.7470   -1.3968 H   0  0  0  0  0  0
    1.0781    5.2409   -0.2307 H   0  0  0  0  0  0
    0.5987    4.6831    2.7599 H   0  0  0  0  0  0
    2.9050    5.0979    3.1078 H   0  0  0  0  0  0
    2.4864   -5.5837   -1.9682 H   0  0  0  0  0  0
    0.9370   -7.1006   -2.4880 H   0  0  0  0  0  0
   -7.3757   -2.5716    0.8456 H   0  0  0  0  0  0
   -6.5927   -1.1245    0.2594 H   0  0  0  0  0  0
   -4.1182   -4.2539    1.7027 H   0  0  0  0  0  0
   -5.8361   -4.5097    1.6722 H   0  0  0  0  0  0
    3.5350   -3.9511   -0.9945 H   0  0  0  0  0  0
    0.5455   -3.8735   -0.3245 H   0  0  0  0  0  0
   -0.0371   -2.8439   -4.0797 H   0  0  0  0  0  0
   -3.6640   -0.4424    0.3902 H   0  0  0  0  0  0
    1.3889   -0.8755   -4.0397 H   0  0  0  0  0  0
   -5.7148   -0.5947    2.5168 H   0  0  0  0  0  0
   -7.4668   -0.7791    2.5281 H   0  0  0  0  0  0
   -5.1711   -4.0081    3.9378 H   0  0  0  0  0  0
   -4.3056   -2.5540    3.4463 H   0  0  0  0  0  0
    3.6435    1.5724   -0.8391 H   0  0  0  0  0  0
    4.6027   -0.9973   -0.4908 H   0  0  0  0  0  0
   -2.6276    4.7967   -2.2677 H   0  0  0  0  0  0
   -1.6880    6.1130   -1.5676 H   0  0  0  0  0  0
   -2.9942    5.3909   -0.6296 H   0  0  0  0  0  0
    1.6529    2.7622   -4.6880 H   0  0  0  0  0  0
    2.7891    2.4582   -3.3466 H   0  0  0  0  0  0
    1.7484    3.8819   -3.3308 H   0  0  0  0  0  0
    1.7111    1.0672    3.1082 H   0  0  0  0  0  0
    0.4554    1.0253    1.8409 H   0  0  0  0  0  0
    0.9194    2.5263    2.5900 H   0  0  0  0  0  0
    2.7482   -1.8188    2.4685 H   0  0  0  0  0  0
    1.2224   -2.4504    1.8030 H   0  0  0  0  0  0
    1.2530   -0.8967    2.5283 H   0  0  0  0  0  0
    5.3680    4.8444    2.2385 H   0  0  0  0  0  0
    5.0415    5.7619    0.7609 H   0  0  0  0  0  0
    5.6569    4.1293    0.6487 H   0  0  0  0  0  0
   -7.3888   -1.2413    4.9560 H   0  0  0  0  0  0
   -5.6203   -1.1050    4.9664 H   0  0  0  0  0  0
   -6.4210   -2.5765    5.5573 H   0  0  0  0  0  0
   -1.4574   -8.1898   -2.4189 H   0  0  0  0  0  0
   -1.1645   -7.4282   -3.9952 H   0  0  0  0  0  0
   -2.6462   -7.0888   -3.1201 H   0  0  0  0  0  0
    6.1195    0.3141    3.1213 H   0  0  0  0  0  0
    6.9571    1.8849    2.9580 H   0  0  0  0  0  0
    5.8472    1.3182    1.7177 H   0  0  0  0  0  0
    3.3240   -5.3591    0.8504 H   0  0  0  0  0  0
    2.4102   -4.2091    1.7945 H   0  0  0  0  0  0
    4.1102   -3.8946    1.4115 H   0  0  0  0  0  0
    2.8922    7.4744    3.4765 H   0  0  0  0  0  0
    1.2901    7.4351    2.6772 H   0  0  0  0  0  0
    2.5538    8.5235    2.0841 H   0  0  0  0  0  0
  1  4  2
  1  6  1
  1 13  1
  2  3  1
  2  8  1
  2 10  2
  3 11  2
  3 20  1
  4  9  1
  4 14  1
  5  6  2
  5 10  1
  5 12  1
  6 11  1
  7 13  1
  7 26  1
  7 49  1
  7  9  1
  8 16  1
 10 42  1
 11 43  1
 12 44  1
 12 14  2
 13 34  2
 14 50  1
 15 21  1
 15 17  1
 15 27  1
 16 25  1
 16 36  2
 17 19  1
 17 51  1
 18 19  1
 18 23  1
 18 52  1
 19 47  1
 20 24  2
 21 32  1
 21 54  1
 22 24  1
 22 37  1
 22 38  1
 23 48  1
 23 39  1
 25 35  2
 25 56  1
 26 29  1
 27 30  1
 28 46  1
 28 55  1
 28 45  1
 29 31  2
 30 41  2
 30 57  1
 31 32  1
 32 53  1
 33 35  1
 33 40  2
 37 45  1
 38 46  1
 39 40  1
 39 58  1
 53 59  1
 60  8  1
 61 15  1
 62 17  1
 63 18  1
 64 19  1
 65 20  1
 66 21  1
 67 23  1
 68 29  1
 69 31  1
 70 32  1
 71 33  1
 72 35  1
 73 37  1
 74 37  1
 75 38  1
 76 38  1
 77 39  1
 78 40  1
 79 42  1
 80 43  1
 81 44  1
 82 45  1
 83 45  1
 84 46  1
 85 46  1
 86 47  1
 87 48  1
 88 49  1
 89 49  1
 90 49  1
 91 50  1
 92 50  1
 93 50  1
 94 51  1
 95 51  1
 96 51  1
 97 52  1
 98 52  1
 99 52  1
100 54  1
101 54  1
102 54  1
103 55  1
104 55  1
105 55  1
106 56  1
107 56  1
108 56  1
109 57  1
110 57  1
111 57  1
112 58  1
113 58  1
114 58  1
115 59  1
116 59  1
117 59  1
M  END
> <ID>
CHEBI:28077


> <NAME>
rifampicin


> <DEFINITION>
A member of the class of rifamycins that is a a semisynthetic antibiotic derived+
 from Amycolatopsis rifamycinica (previously known as Amycolatopsis mediterranei+
 and Streptomyces mediterranei).


> <STAR>
3


> <SECONDARY_ID>
CHEBI:45308; CHEBI:8858; CHEBI:26577


> <SYNONYM>
Rifampin; Rifampicin; rifamcin; RFP; 3-(((4-Methyl-1-piperazinyl)imino)methyl)ri+
famycin SV


> <IUPAC_NAME>
(7S,9E,11S,12R,13S,14R,15R,16R,17S,18S,19E,21Z)-2,15,17,27,29-pentahydroxy-11-me+
thoxy-3,7,12,14,16,18,22-heptamethyl-26-{(E)-[(4-methylpiperazin-1-yl)imino]meth+
yl}-6,23-dioxo-8,30-dioxa-24-azatetracyclo[23.3.1.1(4,7).0(5,28)]triaconta-1(28)+
,1(29),2,4,9,19,21,25,27-nonaen-13-yl acetate


> <INN>
rifampicinum; rifampicina; rifampicin


> <FORMULA>
C43H58N4O12


> <MASS>
822.94020


> <MONOISOTOPIC_MASS>
822.40512


> <CHARGE>
0


> <SMILES>
CO[C@H]1\C=C\O[C@@]2(C)Oc3c(C)c(O)c4c(O)c(NC(=O)\C(C)=C/C=C/[C@H](C)[C@H](O)[C@@+
H](C)[C@@H](O)[C@@H](C)[C@H](OC(C)=O)[C@@H]1C)c(\C=N\N1CCN(C)CC1)c(O)c4c3C2=O


> <INCHI>
InChI=1S/C43H58N4O12/c1-21-12-11-13-22(2)42(55)45-33-28(20-44-47-17-15-46(9)16-1+
8-47)37(52)30-31(38(33)53)36(51)26(6)40-32(30)41(54)43(8,59-40)57-19-14-29(56-10+
)23(3)39(58-27(7)48)25(5)35(50)24(4)34(21)49/h11-14,19-21,23-25,29,34-35,39,49-5+
3H,15-18H2,1-10H3,(H,45,55)/b12-11+,19-14+,22-13-,44-20+/t21-,23+,24+,25+,29-,34+
-,35+,39+,43-/m0/s1


> <INCHIKEY>
JQXXHWHPUNPDRT-WLSIYKJHSA-N


> <BEILSTEIN_REGISTRY_NUMBER>
5723476


> <CAS_REGISTRY_NUMBER>
13292-46-1


> <REAXYS_REGISTRY_NUMBER>
5723476


> <CHEMIDPLUS>
13292-46-1


> <DRUGBANK_ACCESSION>
DB01045


> <KEGG_COMPOUND_ACCESSION>
C06688


> <KEGG_DRUG_ACCESSION>
D00211


> <PDBECHEM_ACCESSION>
RFP


> <WIKIPEDIA_ACCESSION>
Rifampicin


> <PUBMED_CITATION>
11600355; 14665784; 14670633; 15331348; 15383168; 15705662; 16159084; 16515773; +
17828712; 18332862; 19386087; 19458074; 19723399; 24718527; 25720500; 26725427; +
26819743; 27082586; 27143080; 27182275; 27242224; 27470132; 27569735; 27617596; +
27640793; 27755552; 27795624; 27883163; 27965540; 27993874; 28081169; 28118809; +
28181840; 28184157; 28207542; 28262820


> <JMOL_ATOM_NAMES>
117
1 C1
2 C2
3 C3
4 C4
5 C5
6 C6
7 C7
8 N8
9 O9
10 C10
11 C11
12 C12
13 C13
14 C14
15 C15
16 C16
17 C17
18 C18
19 C19
20 C20
21 C21
22 N22
23 C23
24 N24
25 C25
26 O26
27 O27
28 N28
29 C29
30 C30
31 C31
32 C32
33 C33
34 O34
35 C35
36 O36
37 C37
38 C38
39 C39
40 C40
41 O41
42 O42
43 O43
44 O44
45 C45
46 C46
47 O47
48 O48
49 C49
50 C50
51 C51
52 C52
53 O53
54 C54
55 C55
56 C56
57 C57
58 C58
59 C59
60 H60
61 H61
62 H62
63 H63
64 H64
65 H65
66 H66
67 H67
68 H68
69 H69
70 H70
71 H71
72 H72
73 H73
74 H74
75 H75
76 H76
77 H77
78 H78
79 H79
80 H80
81 H81
82 H82
83 H83
84 H84
85 H85
86 H86
87 H87
88 H88
89 H89
90 H90
91 H91
92 H92
93 H93
94 H94
95 H95
96 H96
97 H97
98 H98
99 H99
100 H100
101 H101
102 H102
103 H103
104 H104
105 H105
106 H106
107 H107
108 H108
109 H109
110 H110
111 H111
112 H112
113 H113
114 H114
115 H115
116 H116
117 H117


$$$$
