C:/jmol-16.2.5/ChEBI_18012.sdf
__Jmol-16.04212415183D 1   1.00000     0.00000     0
Jmol version 16.2.5  2024-04-16 21:43 EXTRACT: ({0:11})
 12 11  0  0  0  0            999 V2000
    0.5373   -0.4023   -0.0001 C   0  0  0  0  0  0
    2.8734   -0.6736    0.0000 O   0  0  0  0  0  0
   -0.5377    0.4019   -0.0001 C   0  0  0  0  0  0
   -2.8738    0.6732    0.0000 O   0  0  0  0  0  0
    1.8729    0.2383    0.0000 C   0  0  0  0  0  0
    2.0497    1.4483    0.0000 O   0  0  0  0  0  0
   -1.8733   -0.2387    0.0000 C   0  0  0  0  0  0
   -2.0500   -1.4488    0.0000 O   0  0  0  0  0  0
    0.4537   -1.4873   -0.0001 H   0  0  0  0  0  0
    2.5864   -1.6031    0.0000 H   0  0  0  0  0  0
   -0.4541    1.4869   -0.0001 H   0  0  0  0  0  0
   -2.5867    1.6027    0.0000 H   0  0  0  0  0  0
  5  1  1
  5  2  1
  1  3  2
  3  7  1
  7  4  1
  5  6  2
  7  8  2
  1  9  1
  2 10  1
  3 11  1
  4 12  1
M  END
> <ID>
CHEBI:18012


> <NAME>
fumaric acid


> <DEFINITION>
A butenedioic acid in which the C=C double bond has E geometry. It is an interme+
diate metabolite in the citric acid cycle.


> <STAR>
3


> <SECONDARY_ID>
CHEBI:42743; CHEBI:5190; CHEBI:24124


> <SYNONYM>
trans-ethene-1,2-dioic acid; trans-Butenedioic acid; trans-but-2-enedioic acid; +
trans-1,2-ethylenedicarboxylic acid; Fumarsaeure; FUMARIC ACID; Fumaric acid; E2+
97; (E)-2-butenedioic acid; (2E)-2-butenedioic acid


> <IUPAC_NAME>
(2E)-but-2-enedioic acid


> <FORMULA>
C4H4O4


> <MASS>
116.07220


> <MONOISOTOPIC_MASS>
116.01096


> <CHARGE>
0


> <SMILES>
OC(=O)\C=C\C(O)=O


> <INCHI>
InChI=1S/C4H4O4/c5-3(6)1-2-4(7)8/h1-2H,(H,5,6)(H,7,8)/b2-1+


> <INCHIKEY>
VZCYOOQTPOCHFL-OWOJBTEDSA-N


> <BEILSTEIN_REGISTRY_NUMBER>
605763


> <CAS_REGISTRY_NUMBER>
110-17-8


> <GMELIN_REGISTRY_NUMBER>
49855


> <REAXYS_REGISTRY_NUMBER>
605763


> <CHEMIDPLUS>
110-17-8


> <DRUGBANK_ACCESSION>
DB01677


> <KEGG_COMPOUND_ACCESSION>
C00122


> <KEGG_DRUG_ACCESSION>
D02308


> <KNAPSACK_ACCESSION>
C00001183


> <METACYC_ACCESSION>
FUM


> <NIST_CHEMISTRY_WEBBOOK>
110-17-8


> <PDBECHEM_ACCESSION>
FUM


> <WIKIPEDIA_ACCESSION>
Fumaric_Acid


> <PUBMED_CITATION>
17439666; 21414846; 22113915; 22217732; 22516248; 23472183


> <JMOL_ATOM_NAMES>
12
1 C1
2 O2
3 C3
4 O4
5 C5
6 O6
7 C7
8 O8
9 H9
10 H10
11 H11
12 H12


$$$$
