ChEBI_16196.sdf
__Jmol-16.04212412063D 1   1.00000     0.00000     0
Jmol version 16.2.5  2024-04-16 21:43 EXTRACT: ({0:53})
 54 53  0  0  0  0            999 V2000
   12.1448   -8.9482   -0.0085 C   0  0  0  0  0  0
   11.2261   -9.9413    0.0024 C   0  0  0  0  0  0
   22.6452   -9.3216    0.0000 C   0  0  0  0  0  0
   21.2104   -9.8313   -0.0011 C   0  0  2  0  0  0
   22.9639   -8.1499    0.0004 O   0  0  0  0  0  0
   20.1125   -8.7323   -0.0016 C   0  0  2  0  0  0
   18.6921   -9.3490    0.0120 C   0  0  2  0  0  0
   17.4685   -8.4073    0.0069 C   0  0  2  0  0  0
   16.1134   -9.1618    0.0106 C   0  0  2  0  0  0
   14.8110   -8.2968   -0.0026 C   0  0  2  0  0  0
   13.6021   -9.2378   -0.0153 C   0  0  2  0  0  0
   23.5761  -10.3151    0.0003 O   0  0  0  0  0  0
   11.2702  -11.4823    0.0094 C   0  0  2  0  0  0
   12.4215  -12.5614   -0.0043 C   0  0  2  0  0  0
   13.8936  -12.1800    0.0121 C   0  0  2  0  0  0
   14.9408  -13.2879    0.0049 C   0  0  2  0  0  0
   16.3070  -12.5979    0.0021 C   0  0  2  0  0  0
   17.5327  -13.4943   -0.0092 C   0  0  2  0  0  0
   18.7529  -12.5845   -0.0052 C   0  0  2  0  0  0
   20.0896  -13.2744   -0.0032 C   0  0  0  0  0  0
   11.8157   -7.9103   -0.0105 H   0  0  0  0  0  0
   10.1955   -9.5884    0.0086 H   0  0  0  0  0  0
   21.0972  -10.4549    0.8885 H   0  0  0  0  0  0
   21.0954  -10.4505   -0.8980 H   0  0  0  0  0  0
   20.2318   -8.0952   -0.8786 H   0  0  0  0  0  0
   20.2427   -8.0868    0.8759 H   0  0  0  0  0  0
   18.6228   -9.9697    0.9051 H   0  0  0  0  0  0
   18.6153   -9.9800   -0.8706 H   0  0  0  0  0  0
   17.5148   -7.7766   -0.8843 H   0  0  0  0  0  0
   17.5164   -7.7517    0.8766 H   0  0  0  0  0  0
   16.0842   -9.8068    0.8964 H   0  0  0  0  0  0
   16.0901   -9.8255   -0.8583 H   0  0  0  0  0  0
   14.7927   -7.6490   -0.8870 H   0  0  0  0  0  0
   14.7738   -7.6548    0.8753 H   0  0  0  0  0  0
   13.7168   -9.8050   -0.9383 H   0  0  0  0  0  0
   13.7141   -9.8193    0.8936 H   0  0  0  0  0  0
   23.2070  -11.2138   -0.0001 H   0  0  0  0  0  0
   10.6333  -11.7638   -0.8390 H   0  0  0  0  0  0
   10.6554  -11.7565    0.8755 H   0  0  0  0  0  0
   12.2703  -13.1962   -0.8765 H   0  0  0  0  0  0
   12.2602  -13.2284    0.8522 H   0  0  0  0  0  0
   14.0842  -11.6169    0.9184 H   0  0  0  0  0  0
   14.0933  -11.5989   -0.8923 H   0  0  0  0  0  0
   14.8317  -13.9163   -0.8879 H   0  0  0  0  0  0
   14.8353  -13.9213    0.8846 H   0  0  0  0  0  0
   16.3671  -11.9507    0.8886 H   0  0  0  0  0  0
   16.3635  -11.9508   -0.8758 H   0  0  0  0  0  0
   17.5349  -14.1316   -0.8934 H   0  0  0  0  0  0
   17.5384  -14.1433    0.8751 H   0  0  0  0  0  0
   18.7142  -11.9566    0.8880 H   0  0  0  0  0  0
   18.7130  -11.9544   -0.8949 H   0  0  0  0  0  0
   20.1925  -13.9141   -0.8816 H   0  0  0  0  0  0
   20.2151  -13.8647    0.9051 H   0  0  0  0  0  0
   20.8970  -12.5414   -0.0334 H   0  0  0  0  0  0
 11  1  1
  1  2  2
 13  2  1
  3  4  1
  3  5  2
  3 12  1
  4  6  1
  6  7  1
  7  8  1
  8  9  1
  9 10  1
 10 11  1
 14 13  1
 15 14  1
 16 15  1
 17 16  1
 18 17  1
 19 18  1
 20 19  1
  1 21  1
  2 22  1
  4 23  1
  4 24  1
  6 25  1
  6 26  1
  7 27  1
  7 28  1
  8 29  1
  8 30  1
  9 31  1
  9 32  1
 10 33  1
 10 34  1
 11 35  1
 11 36  1
 12 37  1
 13 38  1
 13 39  1
 14 40  1
 14 41  1
 15 42  1
 15 43  1
 16 44  1
 16 45  1
 17 46  1
 17 47  1
 18 48  1
 18 49  1
 19 50  1
 19 51  1
 20 52  1
 20 53  1
 20 54  1
M  END
> <ID>
CHEBI:16196


> <NAME>
oleic acid


> <DEFINITION>
An octadec-9-enoic acid in which the double bond at C-9 has Z (cis) stereochemis+
try.


> <STAR>
3


> <SECONDARY_ID>
CHEBI:44741; CHEBI:104361; CHEBI:7741; CHEBI:25664


> <SYNONYM>
Oelsaeure; OLEIC ACID; Oleic acid; Oleate; Oelsaeure; Octadec-9-enoic acid; FA 1+
8:1; cis-oleic acid; cis-Delta(9)-octadecenoic acid; cis-9-octadecenoic acid; C1+
8:1 n-9; 18:1Delta9cis; 18:1 n-9; (Z)-Octadec-9-enoic acid; (9Z)-Octadecenoic ac+
id


> <IUPAC_NAME>
(9Z)-octadec-9-enoic acid


> <FORMULA>
C18H34O2


> <MASS>
282.46140


> <MONOISOTOPIC_MASS>
282.25588


> <CHARGE>
0


> <SMILES>
CCCCCCCC\C=C/CCCCCCCC(O)=O


> <INCHI>
InChI=1S/C18H34O2/c1-2-3-4-5-6-7-8-9-10-11-12-13-14-15-16-17-18(19)20/h9-10H,2-8+
,11-17H2,1H3,(H,19,20)/b10-9-


> <INCHIKEY>
ZQPPMHVWECSIRJ-KTKRTIGZSA-N


> <BEILSTEIN_REGISTRY_NUMBER>
1726542


> <CAS_REGISTRY_NUMBER>
112-80-1


> <GMELIN_REGISTRY_NUMBER>
57556


> <REAXYS_REGISTRY_NUMBER>
1726542


> <CHEMIDPLUS>
112-80-1


> <DRUGBANK_ACCESSION>
DB04224


> <ECMDB_ACCESSION>
ECMDB21348


> <KEGG_COMPOUND_ACCESSION>
C00712


> <KEGG_DRUG_ACCESSION>
D02315


> <KNAPSACK_ACCESSION>
C00001232


> <LIPID_MAPS_INSTANCE_ACCESSION>
LMFA01030002


> <NIST_CHEMISTRY_WEBBOOK>
112-80-1


> <PDBECHEM_ACCESSION>
OLA


> <WIKIPEDIA_ACCESSION>
Oleic_acid


> <PUBMED_CITATION>
11304127; 15325315; 15723125; 18772370; 19761868; 23844805; 24819471; 25584012; +
25794012; 5332408; 6205897


> <JMOL_ATOM_NAMES>
54
1 C1
2 C2
3 C3
4 C4
5 O5
6 C6
7 C7
8 C8
9 C9
10 C10
11 C11
12 O12
13 C13
14 C14
15 C15
16 C16
17 C17
18 C18
19 C19
20 C20
21 H21
22 H22
23 H23
24 H24
25 H25
26 H26
27 H27
28 H28
29 H29
30 H30
31 H31
32 H32
33 H33
34 H34
35 H35
36 H36
37 H37
38 H38
39 H39
40 H40
41 H41
42 H42
43 H43
44 H44
45 H45
46 H46
47 H47
48 H48
49 H49
50 H50
51 H51
52 H52
53 H53
54 H54


$$$$
