C:/Users/charl/WebstormProjects/aims/src/molecules/sdf/rifaximin.sdf
__Jmol-16.12022419003D 1   1.00000     0.00000     0
Jmol version 16.2.5  2024-04-16 21:43 EXTRACT: ({0:107})
108113  0  0  0  0            999 V2000
    2.3524   -1.7827    1.2811 C   0  0  0  0  0  0
    1.3941   -2.7800    1.3039 C   0  0  0  0  0  0
    3.7273   -1.8479    1.1984 N   0  0  0  0  0  0
    4.2195   -0.5820    1.2871 C   0  0  0  0  0  0
    3.2333    0.3388    1.4356 N   0  0  0  0  0  0
    2.0909   -0.4242    1.4488 C   0  0  0  0  0  0
    0.4376    1.4206    1.7789 C   0  0  0  0  0  0
   -0.8469    1.7891    2.1148 C   0  0  0  0  0  0
   -0.2348   -0.9384    1.8187 C   0  0  0  0  0  0
    0.7873    0.0548    1.6680 C   0  0  0  0  0  0
    0.1880    3.8049    1.9314 C   0  0  1  0  0  0
    1.7069   -4.0973    0.8576 N   0  0  0  0  0  0
   -1.0610    3.1498    2.2692 O   0  0  0  0  0  0
    0.0811   -2.3241    1.6516 C   0  0  0  0  0  0
   -1.5602   -0.4859    2.1164 C   0  0  0  0  0  0
    1.1516    2.6806    1.6047 C   0  0  0  0  0  0
   -1.8741    0.8647    2.2996 C   0  0  0  0  0  0
   -2.5302    2.8397   -2.5615 C   0  0  1  0  0  0
    1.0605   -5.2478    1.2338 C   0  0  0  0  0  0
   -3.2857    1.4544   -2.3237 C   0  0  1  0  0  0
   -2.8425   -1.2520   -2.6993 C   0  0  1  0  0  0
   -2.3370    0.2214   -2.4926 C   0  0  1  0  0  0
    4.5901   -2.9553    1.1782 C   0  0  0  0  0  0
   -3.2540    4.1274   -1.9994 C   0  0  1  0  0  0
    5.5800   -0.3208    1.2853 C   0  0  0  0  0  0
   -1.9992   -2.2143   -1.7923 C   0  0  2  0  0  0
    1.2701   -6.3819    0.3128 C   0  0  0  0  0  0
    0.1279    4.7735    0.8410 O   0  0  0  0  0  0
   -1.2023    2.7200   -2.0111 O   0  0  0  0  0  0
    5.9645   -2.7200    1.1744 C   0  0  0  0  0  0
    6.4668   -1.4078    1.2268 C   0  0  0  0  0  0
   -1.0828    4.8693    0.1664 C   0  0  0  0  0  0
    0.0037    2.9944   -2.6454 C   0  0  0  0  0  0
   -1.1595    5.3826   -1.0690 C   0  0  0  0  0  0
   -2.4272    5.4523   -1.8756 C   0  0  2  0  0  0
   -0.4248   -5.6796   -1.5112 C   0  0  0  0  0  0
    2.3194    2.8260    1.2531 O   0  0  0  0  0  0
    0.6084   -6.4854   -0.8660 C   0  0  0  0  0  0
    0.3625   -5.3647    2.2316 O   0  0  0  0  0  0
   -1.6971   -3.6481   -2.3471 C   0  0  2  0  0  0
   -0.6636   -4.3597   -1.4768 C   0  0  0  0  0  0
    1.0519    2.7920   -2.0525 O   0  0  0  0  0  0
   -0.9906   -3.2039    1.7507 O   0  0  0  0  0  0
   -2.6230   -1.3736    2.2137 O   0  0  0  0  0  0
   -1.5167    0.4588   -3.6345 O   0  0  0  0  0  0
   -2.6663   -2.3611   -0.5358 O   0  0  0  0  0  0
    0.6787    4.5608    3.1629 C   0  0  0  0  0  0
   -3.2702    1.2890    2.6914 C   0  0  0  0  0  0
   -3.9490    1.3934   -0.9442 C   0  0  0  0  0  0
   -4.3520   -1.5114   -2.6126 C   0  0  0  0  0  0
   -3.2829    6.4283   -1.2389 O   0  0  0  0  0  0
   -4.5114    4.4136   -2.8345 C   0  0  0  0  0  0
    2.1675   -7.4731    0.8121 C   0  0  0  0  0  0
    7.9531   -1.1859    1.2583 C   0  0  0  0  0  0
    0.0268    3.4338   -4.0954 C   0  0  0  0  0  0
   -1.1372   -3.6229   -3.7764 C   0  0  0  0  0  0
   -2.9153    7.7913   -1.4839 C   0  0  0  0  0  0
    2.4176   -4.1753    0.1366 H   0  0  0  0  0  0
   -2.4701    2.9473   -3.6447 H   0  0  0  0  0  0
   -4.0816    1.3857   -3.0750 H   0  0  0  0  0  0
   -2.6015   -1.4906   -3.7332 H   0  0  0  0  0  0
   -1.6621    0.2344   -1.6245 H   0  0  0  0  0  0
    4.2207   -3.9757    1.2112 H   0  0  0  0  0  0
   -3.6007    3.9157   -0.9818 H   0  0  0  0  0  0
    5.9120    0.7123    1.3546 H   0  0  0  0  0  0
   -1.0240   -1.7502   -1.5843 H   0  0  0  0  0  0
    6.6479   -3.5600    1.1595 H   0  0  0  0  0  0
   -1.9575    4.5175    0.6998 H   0  0  0  0  0  0
   -0.2506    5.7518   -1.5265 H   0  0  0  0  0  0
   -2.1756    5.8009   -2.8868 H   0  0  0  0  0  0
   -1.0389   -6.2657   -2.1936 H   0  0  0  0  0  0
    0.8090   -7.3853   -1.4339 H   0  0  0  0  0  0
   -2.6256   -4.2358   -2.3322 H   0  0  0  0  0  0
   -0.0688   -3.7159   -0.8499 H   0  0  0  0  0  0
   -0.6648   -4.1285    1.7975 H   0  0  0  0  0  0
   -2.2772   -2.2782    2.0430 H   0  0  0  0  0  0
   -0.7863    1.0057   -3.3170 H   0  0  0  0  0  0
   -2.7143   -1.4908   -0.0906 H   0  0  0  0  0  0
    0.8248    3.8910    4.0188 H   0  0  0  0  0  0
   -0.0606    5.3126    3.4657 H   0  0  0  0  0  0
    1.6147    5.0864    2.9670 H   0  0  0  0  0  0
   -3.5070    0.9160    3.6900 H   0  0  0  0  0  0
   -4.0113    0.8961    1.9852 H   0  0  0  0  0  0
   -3.3853    2.3747    2.7079 H   0  0  0  0  0  0
   -3.2081    1.5819   -0.1630 H   0  0  0  0  0  0
   -4.4094    0.4343   -0.7304 H   0  0  0  0  0  0
   -4.7479    2.1344   -0.8408 H   0  0  0  0  0  0
   -4.9015   -0.8554   -3.2974 H   0  0  0  0  0  0
   -4.7582   -1.3820   -1.6121 H   0  0  0  0  0  0
   -4.5733   -2.5393   -2.9103 H   0  0  0  0  0  0
   -4.2404    4.7529   -3.8429 H   0  0  0  0  0  0
   -5.1324    5.1903   -2.3832 H   0  0  0  0  0  0
   -5.1429    3.5271   -2.9442 H   0  0  0  0  0  0
    2.9674   -7.6788    0.0983 H   0  0  0  0  0  0
    1.6003   -8.3929    0.9779 H   0  0  0  0  0  0
    2.6406   -7.2051    1.7653 H   0  0  0  0  0  0
    8.4173   -1.5875    0.3551 H   0  0  0  0  0  0
    8.3913   -1.6716    2.1339 H   0  0  0  0  0  0
    8.1990   -0.1187    1.3132 H   0  0  0  0  0  0
    0.5204    2.6540   -4.6861 H   0  0  0  0  0  0
    0.5959    4.3653   -4.1741 H   0  0  0  0  0  0
   -0.9473    3.6147   -4.5436 H   0  0  0  0  0  0
   -0.8598   -4.6274   -4.1219 H   0  0  0  0  0  0
   -0.2452   -2.9949   -3.8488 H   0  0  0  0  0  0
   -1.8719   -3.2586   -4.4998 H   0  0  0  0  0  0
   -3.0799    8.0383   -2.5385 H   0  0  0  0  0  0
   -1.8772    7.9885   -1.2102 H   0  0  0  0  0  0
   -3.5599    8.4346   -0.8745 H   0  0  0  0  0  0
  1  2  1
  1  3  1
  1  6  2
  2 12  1
  2 14  2
  3  4  1
  3 23  1
  4 25  1
  4  5  2
  5  6  1
  6 10  1
  7 10  1
  7  8  2
  7 16  1
  8 13  1
  8 17  1
  9 10  2
  9 15  1
  9 14  1
 11 16  1
 11 28  1
 11 47  1
 11 13  1
 12 19  1
 14 43  1
 15 17  2
 15 44  1
 16 37  2
 17 48  1
 18 24  1
 18 20  1
 18 29  1
 19 27  1
 19 39  2
 20 49  1
 20 22  1
 21 26  1
 21 22  1
 21 50  1
 22 45  1
 23 30  2
 24 35  1
 24 52  1
 25 31  2
 26 40  1
 26 46  1
 27 38  2
 27 53  1
 28 32  1
 29 33  1
 30 31  1
 31 54  1
 32 34  2
 33 42  2
 33 55  1
 34 35  1
 35 51  1
 36 38  1
 36 41  2
 40 41  1
 40 56  1
 51 57  1
 58 12  1
 59 18  1
 60 20  1
 61 21  1
 62 22  1
 63 23  1
 64 24  1
 65 25  1
 66 26  1
 67 30  1
 68 32  1
 69 34  1
 70 35  1
 71 36  1
 72 38  1
 73 40  1
 74 41  1
 75 43  1
 76 44  1
 77 45  1
 78 46  1
 79 47  1
 80 47  1
 81 47  1
 82 48  1
 83 48  1
 84 48  1
 85 49  1
 86 49  1
 87 49  1
 88 50  1
 89 50  1
 90 50  1
 91 52  1
 92 52  1
 93 52  1
 94 53  1
 95 53  1
 96 53  1
 97 54  1
 98 54  1
 99 54  1
100 55  1
101 55  1
102 55  1
103 56  1
104 56  1
105 56  1
106 57  1
107 57  1
108 57  1
M  END
> <ID>
CHEBI:75246


> <NAME>
rifaximin


> <DEFINITION>
A semisynthetic member of the class of rifamycins and non-systemic gastrointesti+
nal site-specific broad spectrum antibiotic. Used in the treatment of traveller'+
s diarrhoea, hepatic encephalopathy and irritable bowel syndrome.


> <STAR>
3


> <SYNONYM>
Rifaxidin; Rifamycin L 105SV; Rifamycin L 105


> <IUPAC_NAME>
(2S,16Z,18E,20S,21S,22R,23R,24R,25S,26R,27S,28E)-5,6,21,23-tetrahydroxy-27-metho+
xy-2,4,11,16,20,22,24,26-octamethyl-1,15-dioxo-1,2-dihydro-2,7-(epoxypentadeca[1+
,11,13]trienoimino)furo[2'',3'':7',8']naphtho[1',2':4,5]imidazo[1,2-a]pyridin-25+
-yl acetate


> <INN>
rifaximinun; rifaximine; rifaximina; rifaximin


> <BRAND_NAME>
Xifaxsan


> <FORMULA>
C43H51N3O11


> <MASS>
785.87850


> <MONOISOTOPIC_MASS>
785.35236


> <CHARGE>
0


> <SMILES>
CO[C@H]1\C=C\O[C@@]2(C)Oc3c(C)c(O)c4c(O)c(NC(=O)\C(C)=C/C=C/[C@H](C)[C@H](O)[C@@+
H](C)[C@@H](O)[C@@H](C)[C@H](OC(C)=O)[C@@H]1C)c1c(nc5cc(C)ccn15)c4c3C2=O


> <INCHI>
InChI=1S/C43H51N3O11/c1-19-14-16-46-28(18-19)44-32-29-30-37(50)25(7)40-31(29)41(+
52)43(9,57-40)55-17-15-27(54-10)22(4)39(56-26(8)47)24(6)36(49)23(5)35(48)20(2)12+
-11-13-21(3)42(53)45-33(34(32)46)38(30)51/h11-18,20,22-24,27,35-36,39,48-51H,1-1+
0H3,(H,45,53)/b12-11+,17-15+,21-13-/t20-,22+,23+,24+,27-,35-,36+,39+,43-/m0/s1


> <INCHIKEY>
NZCRJKRKKOLAOJ-XRCRFVBUSA-N


> <CAS_REGISTRY_NUMBER>
80621-81-4


> <REAXYS_REGISTRY_NUMBER>
7790802


> <CHEMIDPLUS>
80621-81-4


> <DRUGBANK_ACCESSION>
DB01220


> <KEGG_DRUG_ACCESSION>
D02554


> <WIKIPEDIA_ACCESSION>
Rifaximin


> <PUBMED_CITATION>
23092785; 23095030; 23183443; 23216382; 23273888; 23274384; 23275147; 23303506; +
23314671; 23340064; 23389621; 23445237; 23526308; 23556126; 23565181; 23589147; +
23640348; 23653636; 23740443; 23798671; 23843564; 23877348; 23922656; 25214516; +
25339518; 25565769; 25586470; 25641072; 25835116; 25867912; 25932262; 26028929; +
26043290


> <JMOL_ATOM_NAMES>
108
1 C1
2 C2
3 N3
4 C4
5 N5
6 C6
7 C7
8 C8
9 C9
10 C10
11 C11
12 N12
13 O13
14 C14
15 C15
16 C16
17 C17
18 C18
19 C19
20 C20
21 C21
22 C22
23 C23
24 C24
25 C25
26 C26
27 C27
28 O28
29 O29
30 C30
31 C31
32 C32
33 C33
34 C34
35 C35
36 C36
37 O37
38 C38
39 O39
40 C40
41 C41
42 O42
43 O43
44 O44
45 O45
46 O46
47 C47
48 C48
49 C49
50 C50
51 O51
52 C52
53 C53
54 C54
55 C55
56 C56
57 C57
58 H58
59 H59
60 H60
61 H61
62 H62
63 H63
64 H64
65 H65
66 H66
67 H67
68 H68
69 H69
70 H70
71 H71
72 H72
73 H73
74 H74
75 H75
76 H76
77 H77
78 H78
79 H79
80 H80
81 H81
82 H82
83 H83
84 H84
85 H85
86 H86
87 H87
88 H88
89 H89
90 H90
91 H91
92 H92
93 H93
94 H94
95 H95
96 H96
97 H97
98 H98
99 H99
100 H100
101 H101
102 H102
103 H103
104 H104
105 H105
106 H106
107 H107
108 H108


$$$$
